VERS 140124 44 24485
MODE SEQ
NAME 
PFIL 0 0 0
UNIT MM X W X CM MR CPMM
FNUM 1.5E+1 1
ENVD 2.0E+1 1 0
GFAC 0 0
GCAT SCHOTT
RAIM 0 0 1 1 0 0 0 0 0
PUSH 0 0 0 0 0 0
SDMA 0 1 0
FTYP 0 0 3 1 0 0 0
ROPD 2
PICB 1
XFLN 0 0 0 0 0 0 0 0 0 0 0 0
YFLN 0 1.05E+1 1.5E+1 0 0 0 0 0 0 0 0 0
FWGN 1 1 1 1 1 1 1 1 1 1 1 1
VDXN 0 0 0 0 0 0 0 0 0 0 0 0
VDYN 0 0 0 0 0 0 0 0 0 0 0 0
VCXN 0 0 0 0 0 0 0 0 0 0 0 0
VCYN 0 0 0 0 0 0 0 0 0 0 0 0
VANN 0 0 0 0 0 0 0 0 0 0 0 0
WAVM 1 5.875618E-1 1
WAVM 2 5.5E-1 1
WAVM 3 5.5E-1 1
WAVM 4 5.5E-1 1
WAVM 5 5.5E-1 1
WAVM 6 5.5E-1 1
WAVM 7 5.5E-1 1
WAVM 8 5.5E-1 1
WAVM 9 5.5E-1 1
WAVM 10 5.5E-1 1
WAVM 11 5.5E-1 1
WAVM 12 5.5E-1 1
WAVM 13 5.5E-1 1
WAVM 14 5.5E-1 1
WAVM 15 5.5E-1 1
WAVM 16 5.5E-1 1
WAVM 17 5.5E-1 1
WAVM 18 5.5E-1 1
WAVM 19 5.5E-1 1
WAVM 20 5.5E-1 1
WAVM 21 5.5E-1 1
WAVM 22 5.5E-1 1
WAVM 23 5.5E-1 1
WAVM 24 5.5E-1 1
PWAV 1
POLS 1 0 1 0 0 1 0
GLRS 3 0
GSTD 0 100.000 100.000 100.000 100.000 100.000 100.000 0 1 1 0 0 1 1 1 1 1 1
NSCD 100 500 0 1.0E-3 5 1.0E-6 0 0 0 0 0 0 1000000 0 2
COFN QF "COATING.DAT" "SCATTER_PROFILE.DAT" "ABG_DATA.DAT" "PROFILE.GRD"
COFN COATING.DAT SCATTER_PROFILE.DAT ABG_DATA.DAT PROFILE.GRD
SURF 0
  TYPE STANDARD
  CURV 0.0 0 0 0 0 ""
  HIDE 0 0 0 0 0 0 0 0 0 0
  MIRR 2 0
  DISZ INFINITY
  DIAM 0 0 0 0 1 ""
  POPS 0 0 0 0 0 0 0 0 1 1 1 1 0 0 0 0
SURF 1
  COMM glass sur1
  TYPE STANDARD
  CURV 9.739562211351792200E-003 1 0 0 0 ""
  HIDE 0 0 0 0 0 0 0 0 0 0
  MIRR 2 0
  SLAB 2
  DISZ 4.0
  GLAS BK7 0 0 1.5 4.0E+1 0 0 0 0 0 0 
  DIAM 4.028274011572 0 0 0 1 ""
  POPS 0 0 0 0 0 0 0 0 1 1 1 1 0 0 0 0
SURF 2
  COMM glass sur2
  TYPE STANDARD
  CURV -9.739562211351792200E-003 1 0 0 0 ""
  HIDE 0 0 0 0 0 0 0 0 0 0
  MIRR 2 0
  SLAB 1
  DISZ 0
  VDSZ 0 0
  DIAM 3.303330179475 0 0 0 1 ""
  POPS 0 0 0 0 0 0 0 0 1 1 1 1 0 0 0 0
SURF 3
  COMM stop
  STOP
  TYPE STANDARD
  CURV 0.0 0 0 0 0 ""
  HIDE 0 0 0 0 0 0 0 0 0 0
  MIRR 2 0
  DISZ 9.867262500713E+1
  MAZH 0 0
  DIAM 3.288491286628 0 0 0 1 ""
  POPS 0 0 0 0 0 0 0 0 1 1 1 1 0 0 0 0
SURF 4
  TYPE STANDARD
  CURV 0.0 0 0 0 0 ""
  HIDE 0 0 0 0 0 0 0 0 0 0
  MIRR 2 0
  DISZ 0
  DIAM 2.736734508892E+1 0 0 0 1 ""
  POPS 0 0 0 0 0 0 0 0 1 1 1 1 0 0 0 0
EFFL 0 1 0 0 0 0 1.0E+2 1 0 0
SPHA 0 1 0 0 0 0 0 0 0 0
COMA 0 1 0 0 0 0 0 0 0 0
ASTI 0 1 0 0 0 0 0 0 0 0
DIST 0 1 0 0 0 0 0 0 0 0
DMFS 0 0 0 0 0 0 0 0 0 0
BLNK Sequential merit function: RMS spot radius centroid GQ 3 rings 6 arms
BLNK No default air thickness boundary constraints.
BLNK No default glass thickness boundary constraints.
BLNK Operands for field 1.
TRAC 0 1 0 0 3.357106870197E-1 0 0 2.908882086657E-1 0 0
TRAC 0 1 0 0 7.071067811865E-1 0 0 4.654211338652E-1 0 0
TRAC 0 1 0 0 9.419651451199E-1 0 0 2.908882086657E-1 0 0
BLNK Operands for field 2.
TRAC 0 1 0 7.0E-1 1.678553435099E-1 2.90733983281E-1 0 9.696273622191E-2 0 0
TRAC 0 1 0 7.0E-1 3.535533905933E-1 6.123724356958E-1 0 1.551403779551E-1 0 0
TRAC 0 1 0 7.0E-1 4.709825725599E-1 8.157657451533E-1 0 9.696273622191E-2 0 0
TRAC 0 1 0 7.0E-1 3.357106870197E-1 0 0 9.696273622191E-2 0 0
TRAC 0 1 0 7.0E-1 7.071067811865E-1 0 0 1.551403779551E-1 0 0
TRAC 0 1 0 7.0E-1 9.419651451199E-1 0 0 9.696273622191E-2 0 0
TRAC 0 1 0 7.0E-1 1.678553435099E-1 -2.90733983281E-1 0 9.696273622191E-2 0 0
TRAC 0 1 0 7.0E-1 3.535533905933E-1 -6.123724356958E-1 0 1.551403779551E-1 0 0
TRAC 0 1 0 7.0E-1 4.709825725599E-1 -8.157657451533E-1 0 9.696273622191E-2 0 0
BLNK Operands for field 3.
TRAC 0 1 0 1 1.678553435099E-1 2.90733983281E-1 0 9.696273622191E-2 0 0
TRAC 0 1 0 1 3.535533905933E-1 6.123724356958E-1 0 1.551403779551E-1 0 0
TRAC 0 1 0 1 4.709825725599E-1 8.157657451533E-1 0 9.696273622191E-2 0 0
TRAC 0 1 0 1 3.357106870197E-1 0 0 9.696273622191E-2 0 0
TRAC 0 1 0 1 7.071067811865E-1 0 0 1.551403779551E-1 0 0
TRAC 0 1 0 1 9.419651451199E-1 0 0 9.696273622191E-2 0 0
TRAC 0 1 0 1 1.678553435099E-1 -2.90733983281E-1 0 9.696273622191E-2 0 0
TRAC 0 1 0 1 3.535533905933E-1 -6.123724356958E-1 0 1.551403779551E-1 0 0
TRAC 0 1 0 1 4.709825725599E-1 -8.157657451533E-1 0 9.696273622191E-2 0 0
TOL TOFF   0   0              0              0   0 0 0
MNUM 1 1
MOFF   0   1 "" 0 0 0 1 1 0 0.0 ""
